Version 4
SHEET 1 1592 1084
WIRE -1216 -160 -1216 -192
WIRE -1120 -160 -1120 -192
WIRE -1216 -80 -1216 -96
WIRE -1184 -80 -1216 -80
WIRE -1120 -80 -1184 -80
WIRE -1184 -48 -1184 -80
WIRE -1424 48 -1424 32
WIRE -1072 48 -1136 48
WIRE -752 48 -816 48
WIRE -224 80 -368 80
WIRE 80 80 -224 80
WIRE 240 80 160 80
WIRE 368 80 304 80
WIRE 528 80 368 80
WIRE -224 96 -224 80
WIRE -224 96 -288 96
WIRE -160 96 -224 96
WIRE -1072 112 -1136 112
WIRE -752 112 -816 112
WIRE -288 112 -288 96
WIRE -160 112 -160 96
WIRE 80 112 80 80
WIRE 160 112 160 80
WIRE 528 112 528 80
WIRE -1200 128 -1424 128
WIRE 368 128 368 80
WIRE -1200 176 -1200 128
WIRE -1072 176 -1200 176
WIRE -1056 176 -1072 176
WIRE -752 176 -816 176
WIRE -288 208 -288 176
WIRE -224 208 -288 208
WIRE -160 208 -160 192
WIRE -160 208 -224 208
WIRE 80 208 80 192
WIRE -608 224 -608 176
WIRE 160 224 160 192
WIRE 368 224 368 192
WIRE 368 224 160 224
WIRE 528 224 528 192
WIRE 528 224 368 224
WIRE -1280 240 -1296 240
WIRE -1184 240 -1200 240
WIRE -1072 240 -1184 240
WIRE -752 240 -816 240
WIRE -224 256 -224 208
WIRE -160 256 -224 256
WIRE 80 256 80 208
WIRE 80 256 -96 256
WIRE -368 288 -368 80
WIRE 80 288 80 256
WIRE -1184 304 -1184 240
WIRE -1104 304 -1120 304
WIRE -1072 304 -1104 304
WIRE -736 304 -816 304
WIRE -1072 368 -1136 368
WIRE -608 368 -608 304
WIRE -608 368 -816 368
WIRE -1104 432 -1136 432
WIRE -1072 432 -1104 432
WIRE -736 432 -816 432
WIRE -368 448 -368 368
WIRE -128 448 -368 448
WIRE 80 448 80 384
WIRE 80 448 -128 448
WIRE -128 464 -128 448
WIRE 272 480 272 464
WIRE -1104 496 -1104 432
WIRE -1072 496 -1104 496
WIRE -608 496 -608 368
WIRE -608 496 -816 496
WIRE -416 608 -656 608
WIRE -128 608 -224 608
WIRE 112 608 -48 608
WIRE 160 608 112 608
WIRE -656 656 -656 608
WIRE -416 704 -496 704
WIRE -208 704 -224 704
WIRE -496 720 -496 704
WIRE -208 720 -208 704
WIRE -160 720 -208 720
WIRE -48 720 -96 720
WIRE -208 784 -208 720
WIRE -208 784 -336 784
WIRE -176 784 -208 784
WIRE -48 784 -48 720
WIRE -48 784 -80 784
WIRE 16 784 -48 784
WIRE -336 848 -336 784
WIRE -128 848 -128 832
WIRE -128 848 -192 848
WIRE -496 864 -496 800
WIRE 16 864 16 784
WIRE -240 928 -288 928
WIRE -128 928 -128 848
WIRE -128 928 -160 928
WIRE -96 928 -128 928
WIRE 32 928 -16 928
WIRE -288 960 -288 928
FLAG -128 464 0
FLAG 368 304 0
FLAG 80 208 drain
FLAG -752 48 V1
FLAG -752 112 0
FLAG -1184 -48 0
FLAG -752 176 Rt
FLAG -1120 -192 Rt
FLAG -1216 -192 Ct
FLAG -752 240 Ct
FLAG -1136 48 0
FLAG -1136 112 0
FLAG -1136 368 0
FLAG -736 304 0
FLAG -736 432 0
FLAG -1136 432 Vref
FLAG -608 368 Controller
FLAG -608 176 V1
FLAG -1424 32 Vref
FLAG -1296 240 Vin
FLAG -1424 208 0
FLAG 272 560 0
FLAG 272 464 V_control
FLAG 528 80 Vo
FLAG -496 864 0
FLAG -656 736 0
FLAG 112 608 Vo
FLAG 32 928 Vo
FLAG -496 704 Vin
FLAG 16 864 comun
FLAG -288 960 comun
FLAG 368 224 comun
FLAG 32 368 V_control
SYMBOL ind2 96 208 R180
WINDOW 0 36 80 Left 2
WINDOW 3 36 40 Left 2
SYMATTR InstName L1
SYMATTR Value 6.94µ
SYMATTR Type ind
SYMBOL ind2 144 96 R0
SYMATTR InstName L2
SYMATTR Value 3.62µ
SYMATTR Type ind
SYMBOL diode 240 96 R270
WINDOW 0 32 32 VTop 2
WINDOW 3 0 32 VBottom 2
SYMATTR InstName Diodo_salida
SYMATTR Value RFU10TF6S
SYMBOL cap 352 128 R0
SYMATTR InstName C1
SYMATTR Value 240µ
SYMBOL nmos 32 288 R0
WINDOW 0 61 37 Left 2
SYMATTR InstName M1
SYMATTR Value IRF530
SYMBOL res 352 208 R0
SYMATTR InstName R4
SYMATTR Value 100Meg
SYMBOL cap -304 112 R0
SYMATTR InstName C2
SYMATTR Value 55.2µ
SYMBOL res -176 96 R0
SYMATTR InstName R5
SYMATTR Value 1.81
SYMBOL diode -96 240 R90
WINDOW 0 0 32 VBottom 2
WINDOW 3 49 67 VTop 2
SYMATTR InstName Diodo_Snubber
SYMATTR Value 1N4148
SYMBOL tl494 -944 304 R0
SYMATTR InstName U1
SYMBOL voltage -368 272 R0
WINDOW 123 0 0 Left 0
WINDOW 39 0 0 Left 0
SYMATTR InstName Vcc1
SYMATTR Value 21
SYMBOL cap -1232 -160 R0
SYMATTR InstName C3
SYMATTR Value 1n
SYMBOL res -1136 -176 R0
SYMATTR InstName R1
SYMATTR Value 10k
SYMBOL res -624 208 R0
SYMATTR InstName R10
SYMATTR Value 150
SYMBOL res -1440 32 R0
SYMATTR InstName R7
SYMATTR Value 51k
SYMBOL res -1440 112 R0
SYMATTR InstName R8
SYMATTR Value 51k
SYMBOL res -1088 288 R90
WINDOW 0 0 56 VBottom 2
WINDOW 3 32 56 VTop 2
SYMATTR InstName R9
SYMATTR Value 51k
SYMBOL res -1184 224 R90
WINDOW 0 0 56 VBottom 2
WINDOW 3 32 56 VTop 2
SYMATTR InstName R14
SYMATTR Value 510
SYMBOL res 512 96 R0
SYMATTR InstName R12
SYMATTR Value 1.7
SYMBOL voltage 272 464 R0
WINDOW 123 0 0 Left 0
WINDOW 39 0 0 Left 0
SYMATTR InstName V2
SYMATTR Value PULSE(0 10 0 1n 1n 5u 10u)
SYMBOL voltage -656 640 R0
WINDOW 3 46 58 Left 2
WINDOW 123 0 0 Left 0
WINDOW 39 0 0 Left 0
SYMATTR Value 15
SYMATTR InstName V1
SYMBOL Optos\\PC817A -320 656 M0
SYMATTR InstName U4
SYMBOL res -512 704 R0
SYMATTR InstName R2
SYMATTR Value 850
SYMBOL TL431 -128 784 R270
SYMATTR InstName U5
SYMBOL res -32 592 R90
WINDOW 0 0 56 VBottom 2
WINDOW 3 32 56 VTop 2
SYMATTR InstName R3
SYMATTR Value 4k
SYMBOL res -144 912 R90
WINDOW 0 0 56 VBottom 2
WINDOW 3 32 56 VTop 2
SYMATTR InstName R17
SYMATTR Value 10k
SYMBOL res 0 912 R90
WINDOW 0 0 56 VBottom 2
WINDOW 3 32 56 VTop 2
SYMATTR InstName R18
SYMATTR Value 34k
SYMBOL cap -96 704 R90
WINDOW 0 0 32 VBottom 2
WINDOW 3 32 32 VTop 2
SYMATTR InstName C5
SYMATTR Value 1µ
SYMBOL cap -272 832 R90
WINDOW 0 0 32 VBottom 2
WINDOW 3 32 32 VTop 2
SYMATTR InstName C6
SYMATTR Value 22n
SYMBOL res -176 832 R90
WINDOW 0 0 56 VBottom 2
WINDOW 3 32 56 VTop 2
SYMATTR InstName R19
SYMATTR Value 1m
TEXT 112 -88 Left 2 !K1 L1 L2 0.98
TEXT -288 520 Left 2 !.tran 0 2m 0 1u
TEXT -1440 536 Left 2 !;tran 0 4m 2m 0.1u uic
TEXT 296 744 Left 2 !.options gmin=1e-10
TEXT 304 824 Left 2 !.options abstol=1e-10
TEXT 280 880 Left 2 !.options reltol=0.003
TEXT 288 912 Left 2 !.options cshunt=1e-15
