Version 4
SHEET 1 1300 680
WIRE -1600 -752 -1600 -784
WIRE -1504 -752 -1504 -784
WIRE -400 -688 -512 -688
WIRE -176 -688 -400 -688
WIRE 16 -688 -176 -688
WIRE 208 -688 80 -688
WIRE -1600 -672 -1600 -688
WIRE -1568 -672 -1600 -672
WIRE -1504 -672 -1568 -672
WIRE -176 -672 -176 -688
WIRE -176 -672 -208 -672
WIRE -128 -672 -176 -672
WIRE -208 -656 -208 -672
WIRE -128 -656 -128 -672
WIRE 16 -656 16 -688
WIRE 80 -656 80 -688
WIRE 208 -656 208 -688
WIRE 400 -656 272 -656
WIRE 496 -656 400 -656
WIRE 608 -656 496 -656
WIRE 624 -656 608 -656
WIRE -1568 -640 -1568 -672
WIRE 400 -624 400 -656
WIRE 496 -624 496 -656
WIRE -400 -576 -400 -688
WIRE -208 -576 -208 -592
WIRE -176 -576 -208 -576
WIRE -128 -576 -176 -576
WIRE -1808 -544 -1808 -560
WIRE -1456 -544 -1520 -544
WIRE -1072 -544 -1200 -544
WIRE -992 -544 -1072 -544
WIRE 80 -544 80 -576
WIRE 288 -544 80 -544
WIRE 400 -544 400 -560
WIRE 400 -544 288 -544
WIRE 496 -544 400 -544
WIRE -176 -512 -176 -576
WIRE -128 -512 -176 -512
WIRE 16 -512 16 -576
WIRE 16 -512 -64 -512
WIRE -1456 -480 -1520 -480
WIRE -1136 -480 -1200 -480
WIRE -1584 -464 -1808 -464
WIRE 16 -448 16 -512
WIRE -1584 -416 -1584 -464
WIRE -1456 -416 -1584 -416
WIRE -1440 -416 -1456 -416
WIRE -1136 -416 -1200 -416
WIRE -992 -368 -992 -544
WIRE -1664 -352 -1712 -352
WIRE -1568 -352 -1584 -352
WIRE -1456 -352 -1568 -352
WIRE -1136 -352 -1200 -352
WIRE -400 -352 -400 -496
WIRE -192 -352 -400 -352
WIRE 16 -352 -192 -352
WIRE -192 -320 -192 -352
WIRE -1568 -288 -1568 -352
WIRE -1456 -288 -1488 -288
WIRE -1120 -288 -1200 -288
WIRE -1712 -272 -1712 -352
WIRE -1456 -224 -1520 -224
WIRE -992 -224 -992 -288
WIRE -992 -224 -1200 -224
WIRE -896 -224 -992 -224
WIRE -1488 -160 -1520 -160
WIRE -1456 -160 -1488 -160
WIRE -1120 -160 -1200 -160
WIRE -512 -144 -512 -688
WIRE -512 -144 -752 -144
WIRE -752 -112 -752 -144
WIRE -1488 -96 -1488 -160
WIRE -1456 -96 -1488 -96
WIRE -992 -96 -992 -224
WIRE -992 -96 -1200 -96
WIRE 608 -80 608 -656
WIRE 608 -80 160 -80
WIRE -512 -32 -512 -144
WIRE -464 -32 -512 -32
WIRE -160 -32 -272 -32
WIRE 160 -32 160 -80
WIRE 160 -32 -80 -32
WIRE 160 16 160 -32
WIRE -1712 64 -1712 -272
WIRE -752 64 -752 32
WIRE -752 64 -1712 64
WIRE -624 64 -752 64
WIRE -544 64 -624 64
WIRE -464 64 -544 64
WIRE -224 64 -272 64
WIRE -112 64 -224 64
WIRE -48 64 -112 64
WIRE 64 64 32 64
WIRE -544 80 -544 64
WIRE -112 80 -112 64
WIRE -224 112 -224 64
WIRE 64 128 -64 128
WIRE 160 128 160 96
WIRE 160 128 64 128
WIRE 160 160 160 128
WIRE -224 208 -224 176
WIRE -112 208 -112 176
WIRE -112 208 -224 208
WIRE -544 224 -544 160
WIRE -224 224 -224 208
WIRE 160 288 160 240
FLAG -544 224 0
FLAG -624 64 vin_controlador
FLAG 160 128 vo_ref
FLAG 400 -464 0
FLAG 624 -656 vo_fuente
FLAG 288 -544 comun
FLAG -224 224 comun
FLAG 160 288 comun
FLAG -1136 -480 0
FLAG -1568 -640 0
FLAG -1136 -416 Rt
FLAG -1504 -784 Rt
FLAG -1600 -784 Ct
FLAG -1136 -352 Ct
FLAG -1520 -544 0
FLAG -1520 -480 0
FLAG -1520 -224 0
FLAG -1120 -288 0
FLAG -1120 -160 0
FLAG -1520 -160 Vref
FLAG -1808 -560 Vref
FLAG -1808 -384 0
FLAG -32 -368 salida_ctrl
FLAG 160 -80 vo_fuente
FLAG -1712 -272 vin_controlador
FLAG -896 -224 salida_ctrl
FLAG -192 -320 0
FLAG -1072 -464 0
SYMBOL Optos\\PC817A -368 16 M0
SYMATTR InstName U1
SYMBOL res -560 64 R0
SYMATTR InstName R1
SYMATTR Value 860
SYMBOL TL431 -112 128 M0
SYMATTR InstName U2
SYMBOL res -64 -48 R90
WINDOW 0 0 56 VBottom 2
WINDOW 3 32 56 VTop 2
SYMATTR InstName R2
SYMATTR Value 4.2k
SYMBOL res 144 144 R0
SYMATTR InstName R3
SYMATTR Value 10k
SYMBOL res 144 0 R0
SYMATTR InstName R4
SYMATTR Value 38k
SYMBOL cap -208 176 R180
WINDOW 0 24 56 Left 2
WINDOW 3 24 8 Left 2
SYMATTR InstName C1
SYMATTR Value 1µ
SYMBOL res 48 48 R90
WINDOW 0 0 56 VBottom 2
WINDOW 3 32 56 VTop 2
SYMATTR InstName R5
SYMATTR Value 1m
SYMBOL cap 48 64 R0
SYMATTR InstName C2
SYMATTR Value 22n
SYMBOL cap -224 -656 R0
SYMATTR InstName C3
SYMATTR Value 55.2µ
SYMBOL res -144 -672 R0
SYMATTR InstName R6
SYMATTR Value 1.81
SYMBOL diode -64 -528 R90
WINDOW 0 0 32 VBottom 2
WINDOW 3 32 32 VTop 2
SYMATTR InstName D1
SYMATTR Value 1N4148
SYMBOL diode 208 -640 R270
WINDOW 0 32 32 VTop 2
WINDOW 3 0 32 VBottom 2
SYMATTR InstName D2
SYMATTR Value RFU10TF6S
SYMBOL ind2 32 -560 R180
WINDOW 0 36 80 Left 2
WINDOW 3 36 40 Left 2
SYMATTR InstName L1
SYMATTR Value 6.94µ
SYMATTR Type ind
SYMBOL ind2 64 -672 R0
SYMATTR InstName L2
SYMATTR Value 3.62µ
SYMATTR Type ind
SYMBOL nmos -32 -448 R0
SYMATTR InstName M1
SYMATTR Value IRF530
SYMBOL cap 384 -624 R0
SYMATTR InstName C4
SYMATTR Value 500µ
SYMBOL res 480 -640 R0
SYMATTR InstName R7
SYMATTR Value 1.7
SYMBOL voltage -400 -592 R0
WINDOW 123 0 0 Left 0
WINDOW 39 0 0 Left 0
SYMATTR InstName Vcc
SYMATTR Value 24
SYMBOL res 384 -560 R0
SYMATTR InstName R8
SYMATTR Value 100Meg
SYMBOL tl494 -1328 -288 R0
SYMATTR InstName U3
SYMBOL cap -1616 -752 R0
SYMATTR InstName C5
SYMATTR Value 1n
SYMBOL res -1520 -768 R0
SYMATTR InstName R9
SYMATTR Value 10k
SYMBOL res -1008 -384 R0
SYMATTR InstName R10
SYMATTR Value 150
SYMBOL res -1824 -560 R0
SYMATTR InstName R11
SYMATTR Value 51k
SYMBOL res -1824 -480 R0
SYMATTR InstName R12
SYMATTR Value 51k
SYMBOL res -1472 -304 R90
WINDOW 0 0 56 VBottom 2
WINDOW 3 32 56 VTop 2
SYMATTR InstName R13
SYMATTR Value 5.1k
SYMBOL res -1568 -368 R90
WINDOW 0 0 56 VBottom 2
WINDOW 3 32 56 VTop 2
SYMATTR InstName R14
SYMATTR Value 510
SYMBOL voltage -1072 -560 R0
WINDOW 123 0 0 Left 0
WINDOW 39 0 0 Left 0
SYMATTR InstName V3
SYMATTR Value 10
SYMBOL cap -768 -32 R0
SYMATTR InstName C6
SYMATTR Value 1m
SYMBOL res -768 -128 R0
SYMATTR InstName R15
SYMATTR Value 8000
TEXT -16 -736 Left 2 !K L1 L2 0.98
TEXT -824 312 Left 2 !.tran 0 100m 0 1u
