Version 4
SHEET 1 1972 824
WIRE 704 0 704 -16
WIRE 896 16 896 -16
WIRE 992 16 992 -16
WIRE 896 96 896 80
WIRE 928 96 896 96
WIRE 992 96 928 96
WIRE 928 128 928 96
WIRE 1040 224 976 224
WIRE 1360 224 1296 224
WIRE 1040 288 976 288
WIRE 1360 288 1296 288
WIRE 672 304 672 288
WIRE 1040 352 816 352
WIRE 1360 352 1296 352
WIRE 816 384 816 352
WIRE 816 384 672 384
WIRE 1504 400 1504 352
WIRE -176 416 -416 416
WIRE 112 416 16 416
WIRE 352 416 192 416
WIRE 400 416 352 416
WIRE 816 416 800 416
WIRE 912 416 896 416
WIRE 1040 416 912 416
WIRE 1360 416 1296 416
WIRE -416 464 -416 416
WIRE 912 480 912 416
WIRE 1040 480 992 480
WIRE 1376 480 1296 480
WIRE -176 512 -256 512
WIRE 32 512 16 512
WIRE -256 528 -256 512
WIRE 32 528 32 512
WIRE 80 528 32 528
WIRE 192 528 144 528
WIRE 1040 544 976 544
WIRE 1504 544 1504 480
WIRE 1504 544 1296 544
WIRE 400 560 400 496
WIRE 32 592 32 528
WIRE 64 592 32 592
WIRE 192 592 192 528
WIRE 192 592 160 592
WIRE 256 592 192 592
WIRE 1008 608 976 608
WIRE 1040 608 1008 608
WIRE 1376 608 1296 608
WIRE 1728 624 1728 560
WIRE -256 672 -256 608
WIRE 256 672 256 592
WIRE 1008 672 1008 608
WIRE 1040 672 1008 672
WIRE 1504 672 1504 544
WIRE 1504 672 1296 672
WIRE 0 736 -48 736
WIRE 112 736 112 640
WIRE 112 736 80 736
WIRE 144 736 112 736
WIRE 272 736 224 736
WIRE -48 768 -48 736
FLAG 704 80 0
FLAG 1360 224 Vcc
FLAG 1360 288 0
FLAG 928 128 0
FLAG 1360 352 Rt
FLAG 992 -16 Rt
FLAG 896 -16 Ct
FLAG 1360 416 Ct
FLAG 704 -16 Vcc
FLAG 976 224 0
FLAG 976 288 0
FLAG 976 544 0
FLAG 1376 480 0
FLAG 1376 608 0
FLAG 976 608 Vref
FLAG 672 464 0
FLAG 672 288 Vref
FLAG 1504 352 Vcc
FLAG 1504 544 Vo2
FLAG -256 672 0
FLAG -416 544 0
FLAG -48 768 0
FLAG 352 416 Vo
FLAG 272 736 Vo
FLAG -256 512 Vin
FLAG 400 640 0
FLAG 1728 704 0
FLAG 1728 480 prueba
FLAG 672 384 referencia
FLAG 256 672 0
FLAG 800 416 Vin
SYMBOL tl494 1168 480 R0
SYMATTR InstName U1
SYMBOL voltage 704 -16 R0
WINDOW 123 0 0 Left 0
WINDOW 39 0 0 Left 0
SYMATTR InstName Vcc1
SYMATTR Value 15
SYMBOL cap 880 16 R0
SYMATTR InstName C1
SYMATTR Value 1n
SYMBOL res 976 0 R0
SYMATTR InstName R1
SYMATTR Value 10k
SYMBOL res 1008 464 R90
WINDOW 0 0 56 VBottom 2
WINDOW 3 32 56 VTop 2
SYMATTR InstName R2
SYMATTR Value 51k
SYMBOL res 912 400 R90
WINDOW 0 0 56 VBottom 2
WINDOW 3 32 56 VTop 2
SYMATTR InstName R3
SYMATTR Value 510
SYMBOL res 656 288 R0
SYMATTR InstName R4
SYMATTR Value 51k
SYMBOL res 656 368 R0
SYMATTR InstName R5
SYMATTR Value 51k
SYMBOL res 1488 384 R0
SYMATTR InstName R6
SYMATTR Value 150
SYMBOL voltage -416 448 R0
WINDOW 3 46 58 Left 2
WINDOW 123 0 0 Left 0
WINDOW 39 0 0 Left 0
SYMATTR Value 15
SYMATTR InstName V1
SYMBOL Optos\\PC817A -80 464 M0
SYMATTR InstName U3
SYMBOL res -272 512 R0
SYMATTR InstName R8
SYMATTR Value 4k
SYMBOL voltage 400 400 R0
WINDOW 123 0 0 Left 0
WINDOW 39 0 0 Left 0
SYMATTR InstName V3
SYMATTR Value SINE(0 0.05 100k)
SYMBOL TL431 112 592 R270
SYMATTR InstName U2
SYMBOL res 208 400 R90
WINDOW 0 0 56 VBottom 2
WINDOW 3 32 56 VTop 2
SYMATTR InstName 5k
SYMATTR Value 11.75k
SYMBOL res 96 720 R90
WINDOW 0 0 56 VBottom 2
WINDOW 3 32 56 VTop 2
SYMATTR InstName R7
SYMATTR Value 10k
SYMBOL res 240 720 R90
WINDOW 0 0 56 VBottom 2
WINDOW 3 32 56 VTop 2
SYMATTR InstName R9
SYMATTR Value 34k
SYMBOL cap 144 512 R90
WINDOW 0 0 32 VBottom 2
WINDOW 3 32 32 VTop 2
SYMATTR InstName C2
SYMATTR Value 1µ
SYMBOL voltage 400 544 R0
WINDOW 123 0 0 Left 0
WINDOW 39 0 0 Left 0
SYMATTR InstName Vcc2
SYMATTR Value 11
SYMBOL voltage 1728 464 R0
WINDOW 123 0 0 Left 0
WINDOW 39 0 0 Left 0
SYMATTR InstName V2
SYMATTR Value SINE(0 0.05 10k)
SYMBOL voltage 1728 608 R0
WINDOW 123 0 0 Left 0
WINDOW 39 0 0 Left 0
SYMATTR InstName Vcc3
SYMATTR Value 2.5
TEXT 672 712 Left 2 !.tran 0 4m 2m 0.1u uic
