Version 4
SHEET 1 1204 784
WIRE 336 -16 336 -32
WIRE 528 0 528 -32
WIRE 624 0 624 -32
WIRE 528 80 528 64
WIRE 560 80 528 80
WIRE 624 80 560 80
WIRE -240 96 -240 64
WIRE -240 96 -448 96
WIRE 560 112 560 80
WIRE -240 144 -240 96
WIRE 672 208 608 208
WIRE 992 208 928 208
WIRE 672 272 608 272
WIRE 992 272 928 272
WIRE 304 288 304 272
WIRE 672 336 448 336
WIRE 992 336 928 336
WIRE 448 368 448 336
WIRE 448 368 304 368
WIRE 1136 384 1136 336
WIRE 448 400 432 400
WIRE 544 400 528 400
WIRE 672 400 544 400
WIRE 992 400 928 400
WIRE -448 416 -448 96
WIRE -192 416 -448 416
WIRE 160 416 0 416
WIRE 544 464 544 400
WIRE 672 464 624 464
WIRE 1008 464 928 464
WIRE -192 512 -256 512
WIRE 48 512 0 512
WIRE -256 528 -256 512
WIRE 48 528 48 512
WIRE 672 528 608 528
WIRE 1136 528 1136 464
WIRE 1136 528 928 528
WIRE 640 592 608 592
WIRE 672 592 640 592
WIRE 1008 592 928 592
WIRE 640 656 640 592
WIRE 672 656 640 656
WIRE 1136 656 1136 528
WIRE 1136 656 928 656
WIRE -256 672 -256 608
WIRE 48 672 48 608
FLAG 336 64 0
FLAG 992 208 Vcc
FLAG 992 272 0
FLAG 560 112 0
FLAG 992 336 Rt
FLAG 624 -32 Rt
FLAG 528 -32 Ct
FLAG 992 400 Ct
FLAG 336 -32 Vcc
FLAG 608 208 0
FLAG 608 272 0
FLAG 608 528 0
FLAG 1008 464 0
FLAG 1008 592 0
FLAG 608 592 Vref
FLAG 304 448 0
FLAG 304 272 Vref
FLAG 432 400 Vin
FLAG 1136 336 Vcc
FLAG 1136 528 Vo
FLAG -240 -16 0
FLAG -256 672 0
FLAG 48 672 0
FLAG 48 512 Vin
FLAG -240 304 0
FLAG 160 496 0
SYMBOL tl494 800 464 R0
SYMATTR InstName U1
SYMBOL voltage 336 -32 R0
WINDOW 123 0 0 Left 0
WINDOW 39 0 0 Left 0
SYMATTR InstName Vcc1
SYMATTR Value 40
SYMBOL cap 512 0 R0
SYMATTR InstName C1
SYMATTR Value 1n
SYMBOL res 608 -16 R0
SYMATTR InstName R1
SYMATTR Value 10k
SYMBOL res 640 448 R90
WINDOW 0 0 56 VBottom 2
WINDOW 3 32 56 VTop 2
SYMATTR InstName R2
SYMATTR Value 51k
SYMBOL res 544 384 R90
WINDOW 0 0 56 VBottom 2
WINDOW 3 32 56 VTop 2
SYMATTR InstName R3
SYMATTR Value 510
SYMBOL res 288 272 R0
SYMATTR InstName R4
SYMATTR Value 51k
SYMBOL res 288 352 R0
SYMATTR InstName R5
SYMATTR Value 51k
SYMBOL res 1120 368 R0
SYMATTR InstName R6
SYMATTR Value 150
SYMBOL voltage -240 128 R0
WINDOW 3 46 58 Left 2
WINDOW 123 0 0 Left 0
WINDOW 39 0 0 Left 0
SYMATTR InstName V1
SYMATTR Value 12
SYMBOL res -256 -32 R0
SYMATTR InstName R7
SYMATTR Value 1.71
SYMBOL Optos\\PC817A -96 464 R0
SYMATTR InstName U3
SYMBOL res -272 512 R0
SYMATTR InstName R8
SYMATTR Value 622
SYMBOL res 32 512 R0
SYMATTR InstName R9
SYMATTR Value 100
SYMBOL voltage -240 208 R0
WINDOW 123 0 0 Left 0
WINDOW 39 0 0 Left 0
SYMATTR InstName V2
SYMATTR Value SINE(0 0.1 10k)
SYMBOL voltage 160 400 R0
WINDOW 123 0 0 Left 0
WINDOW 39 0 0 Left 0
SYMATTR InstName V3
SYMATTR Value 21
TEXT 304 696 Left 2 !.tran 0 4m 2m 0.1u uic
